/*--------------------------------*- C++ -*----------------------------------*\
| =========                 |                                                 |
| \\      /  F ield         | OpenFOAM: The Open Source CFD Toolbox           |
|  \\    /   O peration     | Version:  2.3.0                                 |
|   \\  /    A nd           | Web:      www.OpenFOAM.org                      |
|    \\/     M anipulation  |                                                 |
\*---------------------------------------------------------------------------*/
FoamFile
{
    version     2.0;
    format      ascii;
    class       dictionary;
    object      snappyHexMeshDict;
}
// * * * * * * * * * * * * * * * * * * * * * * * * * * * * * * * * * * * * * //

castellatedMesh true;
snap            true;
addLayers       false;

geometry
{
    nacaSTL.stl
    {
        type triSurfaceMesh;
        name walls;
    }
};

castellatedMeshControls
{

    maxLocalCells   5000000;

    maxGlobalCells  10000000;

    minRefinementCells 0;

    maxLoadUnbalance 0.10;

    nCellsBetweenLevels 3;

    features
    (
    );

    refinementSurfaces
    {
        walls
        {
            level (0 0);
        }
    }

    resolveFeatureAngle 120;

    refinementRegions
    {
    }

    locationInMesh 	(-0.4 0.00 0.00);

    allowFreeStandingZoneFaces true;
}

snapControls
{
    nSmoothPatch 10;

    tolerance 1.0;

    nSolveIter 100;

    nRelaxIter 30;

    nFeatureSnapIter 10;

    implicitFeatureSnap true;

    explicitFeatureSnap false;

    multiRegionFeatureSnap false;
}

addLayersControls
{
    relativeSizes true;

    layers
    {
    }

    expansionRatio 1.0;

    finalLayerThickness 0.7;

    minThickness 0.1;

    nGrow 0;

    featureAngle 120;

    slipFeatureAngle 30;

    nRelaxIter 30;

    nSmoothSurfaceNormals 1;

    nSmoothNormals 3;

    nSmoothThickness 10;

    maxFaceThicknessRatio 0.5;

    maxThicknessToMedialRatio 0.3;

    minMedianAxisAngle 90;

    nBufferCellsNoExtrude 0;

    nLayerIter 50;
}

meshQualityControls
{
    #include "meshQualityDict"

    nSmoothScale 4;
    errorReduction 0.75;
}

writeFlags
(
);

debug 0;

mergeTolerance 1e-6;


// ************************************************************************* //
