/*--------------------------------*- C++ -*----------------------------------*\
  =========                 |
  \\      /  F ield         | OpenFOAM: The Open Source CFD Toolbox
   \\    /   O peration     | Website:  https://openfoam.org
    \\  /    A nd           | Version:  8
     \\/     M anipulation  |
\*---------------------------------------------------------------------------*/
FoamFile
{
    version     2.0;
    format      ascii;
    class       polyBoundaryMesh;
    location    "1e-05/polyMesh";
    object      boundary;
}
// * * * * * * * * * * * * * * * * * * * * * * * * * * * * * * * * * * * * * //

4
(
    frontAndBack
    {
        type            empty;
        inGroups        List<word> 1(empty);
        nFaces          242320;
        startFace       241302;
    }
    inlet
    {
        type            patch;
        nFaces          1250;
        startFace       483622;
    }
    outlet
    {
        type            patch;
        nFaces          250;
        startFace       484872;
    }
    walls
    {
        type            wall;
        inGroups        List<word> 1(wall);
        nFaces          494;
        startFace       485122;
    }
)

// ************************************************************************* //
